/Users/osman_mbp/Osman_Macbook_Pro/Metal_Ligand/xtb_prescreening/test_structure_gen/01_initial_structures/ligands/glycine_workdir/initial.xyz
 OpenBabel06032512253D

 10  9  0  0  0  0  0  0  0  0999 V2000
    1.0402   -0.4397    0.4051 N   0  0  0  0  0  0  0  0  0  0  0  0
    2.3671   -0.0398   -0.1364 C   0  0  0  0  0  0  0  0  0  0  0  0
    3.0687   -1.2684   -0.7122 C   0  0  0  0  0  0  0  0  0  0  0  0
    4.1788   -1.2678   -1.2185 O   0  0  0  0  0  0  0  0  0  0  0  0
    2.2837   -2.3736   -0.6173 O   0  0  0  0  0  0  0  0  0  0  0  0
    0.5023    0.4173    0.5644 H   0  0  0  0  0  0  0  0  0  0  0  0
    1.1900   -0.8166    1.3479 H   0  0  0  0  0  0  0  0  0  0  0  0
    2.9754    0.3910    0.6631 H   0  0  0  0  0  0  0  0  0  0  0  0
    2.2259    0.6836   -0.9439 H   0  0  0  0  0  0  0  0  0  0  0  0
    1.4475   -2.0696   -0.1827 H   0  0  0  0  0  0  0  0  0  0  0  0
  1  6  1  0  0  0  0
  1  7  1  0  0  0  0
  2  1  1  0  0  0  0
  2  8  1  0  0  0  0
  3  2  1  0  0  0  0
  4  3  2  0  0  0  0
  5  3  1  0  0  0  0
  5 10  1  0  0  0  0
  9  2  1  0  0  0  0
M  END
$$$$
/Users/osman_mbp/Osman_Macbook_Pro/Metal_Ligand/xtb_prescreening/test_structure_gen/01_initial_structures/ligands/glycine_workdir/initial.xyz
 OpenBabel06032512253D

 10  9  0  0  0  0  0  0  0  0999 V2000
    1.0402   -0.4397    0.4051 N   0  0  0  0  0  0  0  0  0  0  0  0
    2.3671   -0.0398   -0.1364 C   0  0  0  0  0  0  0  0  0  0  0  0
    3.0687   -1.2684   -0.7122 C   0  0  0  0  0  0  0  0  0  0  0  0
    4.2772   -1.4335   -0.7450 O   0  0  0  0  0  0  0  0  0  0  0  0
    2.1723   -2.1560   -1.2175 O   0  0  0  0  0  0  0  0  0  0  0  0
    0.5023    0.4173    0.5644 H   0  0  0  0  0  0  0  0  0  0  0  0
    1.1900   -0.8166    1.3479 H   0  0  0  0  0  0  0  0  0  0  0  0
    2.9754    0.3910    0.6631 H   0  0  0  0  0  0  0  0  0  0  0  0
    2.2259    0.6836   -0.9439 H   0  0  0  0  0  0  0  0  0  0  0  0
    1.2816   -1.7512   -1.0642 H   0  0  0  0  0  0  0  0  0  0  0  0
  1  6  1  0  0  0  0
  1  7  1  0  0  0  0
  2  1  1  0  0  0  0
  2  8  1  0  0  0  0
  3  2  1  0  0  0  0
  4  3  2  0  0  0  0
  5  3  1  0  0  0  0
  5 10  1  0  0  0  0
  9  2  1  0  0  0  0
M  END
$$$$
/Users/osman_mbp/Osman_Macbook_Pro/Metal_Ligand/xtb_prescreening/test_structure_gen/01_initial_structures/ligands/glycine_workdir/initial.xyz
 OpenBabel06032512253D

 10  9  0  0  0  0  0  0  0  0999 V2000
    1.0402   -0.4397    0.4051 N   0  0  0  0  0  0  0  0  0  0  0  0
    2.3671   -0.0398   -0.1364 C   0  0  0  0  0  0  0  0  0  0  0  0
    3.0687   -1.2684   -0.7122 C   0  0  0  0  0  0  0  0  0  0  0  0
    4.1433   -1.7035   -0.3320 O   0  0  0  0  0  0  0  0  0  0  0  0
    2.3548   -1.8097   -1.7340 O   0  0  0  0  0  0  0  0  0  0  0  0
    0.5023    0.4173    0.5644 H   0  0  0  0  0  0  0  0  0  0  0  0
    1.1900   -0.8166    1.3479 H   0  0  0  0  0  0  0  0  0  0  0  0
    2.9754    0.3910    0.6631 H   0  0  0  0  0  0  0  0  0  0  0  0
    2.2259    0.6836   -0.9439 H   0  0  0  0  0  0  0  0  0  0  0  0
    1.5476   -1.2432   -1.8241 H   0  0  0  0  0  0  0  0  0  0  0  0
  1  6  1  0  0  0  0
  1  7  1  0  0  0  0
  2  1  1  0  0  0  0
  2  8  1  0  0  0  0
  3  2  1  0  0  0  0
  4  3  2  0  0  0  0
  5  3  1  0  0  0  0
  5 10  1  0  0  0  0
  9  2  1  0  0  0  0
M  END
$$$$
