/Users/osman_mbp/Osman_Macbook_Pro/Metal_Ligand/xtb_prescreening/test_structure_gen/01_initial_structures/ligands/glycine_workdir/initial.xyz
 OpenBabel06032512253D

 10  9  0  0  0  0  0  0  0  0999 V2000
    1.0402   -0.4397    0.4051 N   0  0  0  0  0  0  0  0  0  0  0  0
    2.3671   -0.0398   -0.1364 C   0  0  0  0  0  0  0  0  0  0  0  0
    3.0687   -1.2684   -0.7122 C   0  0  0  0  0  0  0  0  0  0  0  0
    4.2436   -1.3154   -1.0380 O   0  0  0  0  0  0  0  0  0  0  0  0
    2.2065   -2.3101   -0.8470 O   0  0  0  0  0  0  0  0  0  0  0  0
    0.5023    0.4173    0.5644 H   0  0  0  0  0  0  0  0  0  0  0  0
    1.1900   -0.8166    1.3479 H   0  0  0  0  0  0  0  0  0  0  0  0
    2.9754    0.3910    0.6631 H   0  0  0  0  0  0  0  0  0  0  0  0
    2.2259    0.6836   -0.9439 H   0  0  0  0  0  0  0  0  0  0  0  0
    1.3332   -1.9768   -0.5199 H   0  0  0  0  0  0  0  0  0  0  0  0
  1  6  1  0  0  0  0
  1  7  1  0  0  0  0
  2  1  1  0  0  0  0
  2  8  1  0  0  0  0
  3  2  1  0  0  0  0
  4  3  2  0  0  0  0
  5  3  1  0  0  0  0
  5 10  1  0  0  0  0
  9  2  1  0  0  0  0
M  END
$$$$
